[General]
network = AlohaNetwork
sim-time-limit = 10s
record-eventlog = true