[General]
network = FiveHostNetwork
sim-time-limit = 20s
record-eventlog = true